data/snem2000_acdc.m
%   (Optimal) Power flow data for Synthetic National Electricity Market (NEM) Australia.
%
%   This case represents the synthetic NEM network with Mainland and Tasmania sub-networks.
%   This dataset is derived by complementing and extending the S-NEM2300bus benchmark data and software
%   released under BSD licence, https://opensource.org/license/BSD-3-clause/
%   and as part the following work:
%   - F. Arraño-Vargas and G. Konstantinou, "Modular Design and Real-Time Simulators Toward Power System Digital Twins Implementation,"
%     in IEEE Transactions on Industrial Informatics, doi: 10.1109/TII.2022.3178713 (https://doi.org/10.1109/TII.2022.3178713)
%   - F. Arraño-Vargas and G. Konstantinou, "Synthetic Grid Modeling for Real-Time Simulations," 2021 IEEE PES Innovative Smart Grid Technologies - Asia (ISGT Asia),
%     2021, pp. 1-5, doi: 10.1109/ISGTAsia49270.2021.9715654 (https://doi.org/10.1109/ISGTAsia49270.2021.9715654)
%
%   The technical report on the dataset development can be found at: https://arxiv.org/abs/2306.08176
%
%   Copyright (c) 2023 by Rahmat Heidari rahmat.heidarihaei@csiro.au
%   Licensed under the Creative Commons Attribution 4.0
%   International license, http://creativecommons.org/licenses/by/4.0/
% 

%	Integration of HVDC Links by Ghulam Mohy-ud-din ghulam.mohyuddin@csiro.au
%	Changes compared to SNEM2000.m
%	BASSLINK - ("bus_2222" - "bus_5150")
%	Bus "bus_5001", Branch "line_2202_to_5001_1_cp", shunt on "bus_5001", Generators "gen_5001_1", "gen_5171_1" are removed and Bus "bus_5150" bus-type is changed to 1.
%	MURRAYLINK - ("bus_2162" - "bus_2355")
%	Generator "gen_2355_1", load on "bus_2355", shunt on "bus_2355" are removed and Bus "bus_2355" bus-type is changed to 1.
%	TERRANORALINK - ("bus_1218" - "bus_1304") 
%	Generator "gen_1218_1", load on "bus_1218" are removed and Bus "bus_1218" bus-type is changed to 1.
%	Bus indexes updated to 1 ~ N to avoid inconsistencies
%	Zero branch 'x' changed to 1E-3
%

%% MATPOWER Case Format : Version 2
function mpc = NEM
mpc.version = '2';

%%-----  Power Flow Data  -----%%
%% system MVA base
mpc.baseMVA = 100;
%% bus data
%    bus_i    type    Pd    Qd    Gs    Bs    area    Vm    Va    baseKV    zone    Vmax    Vmin
mpc.bus = [
	1	1	0.0	0.0	0.0	0.0	4	1.057048956277603	57.52091853179559	275.0	1	1.1	0.9				
	2	1	0.0	0.0	0.0	0.0	4	1.0179792555580456	57.48594945778566	66.0	1	1.1	0.9				
	3	1	0.0	0.0	0.0	0.0	1	1.0865732187277566	-13.46326031821057	0.55	1	1.1	0.9				
	4	1	9.355660670996603	-1.7874206358314504	0.0	0.0	1	1.0511173027068492	-20.3194569839025	132.0	1	1.1	0.9				
	5	1	0.0	0.0	0.0	0.0	5	1.093081832864612	-4.151988882873751	220.0	1	1.1	0.9				
	6	1	7.06217190745063	3.0790575548005803	0.0	0.0	4	1.0202665614864552	57.594850652276456	66.0	1	1.1	0.9				
	7	1	0.0	0.0	0.0	0.0	4	1.0231839153075148	55.19821707270849	66.0	1	1.1	0.9				
	8	1	6.846033021336422	1.185359802347422	0.0	0.0	1	1.0606212457309643	-11.895200629777422	11.0	1	1.1	0.9				
	9	1	37.37692512202407	3.7867029066234	0.0	0.0	1	1.0478066280143026	-13.683152591422736	66.0	1	1.1	0.9				
	10	1	8.46790593026625	4.542128824828191	0.0	0.0	4	1.0172075788408763	54.917555547025856	11.0	1	1.1	0.9				
	11	1	0.0	0.0	0.0	0.0	3	1.0245658064948024	0.7650574988557302	110.0	1	1.1	0.9				
	12	1	56.8872802143828	25.158841662301302	0.0	48.61590218264612	3	1.053455705088402	-16.76282021250022	110.0	1	1.1	0.9				
	13	1	11.674597249693331	4.07840301825218	0.0	0.0	3	1.0617715360098734	-22.852836357924883	11.0	1	1.1	0.9				
	14	1	0.0	0.0	0.0	0.0	1	1.0366595591793213	-19.002351235865973	132.0	1	1.1	0.9				
	15	1	0.0	0.0	0.0	0.0	4	0.9961527504591549	61.272112916909116	132.0	1	1.1	0.9				
	16	1	0.0	0.0	0.0	0.0	2	0.9951710382183326	-14.386558048209642	33.0	1	1.1	0.9				
	17	1	0.0	0.0	0.0	0.0	4	1.0700695957190935	55.82178360461267	66.0	1	1.1	0.9				
	18	1	0.0	0.0	0.0	-0.33366009899999943	4	1.022934109039757	55.40187102039007	66.0	1	1.1	0.9				
	19	1	20.0074444905052	6.466879342899561	0.0	0.0	3	1.0087045560006753	-24.63775948535412	11.0	1	1.1	0.9				
	20	1	0.0	0.0	0.0	0.0	4	1.0029647594963729	58.14108913879156	66.0	1	1.1	0.9				
	21	1	0.0	0.0	0.0	0.0	1	1.073001075665729	-34.81355719559391	132.0	1	1.1	0.9				
	22	1	0.0	0.0	0.0	0.0	1	1.0285494485460802	-2.1642338323014454	66.0	1	1.1	0.9				
	23	1	7.293867577355731	3.06889022315601	0.0	0.0	4	1.0229433629142866	53.365681781726174	11.0	1	1.1	0.9				
	24	1	18.59483333485271	7.6610123497149	0.0	0.0	3	1.045968391712119	-23.864159494627632	11.0	1	1.1	0.9				
	25	2	0.0	0.0	0.0	0.0	1	1.0992479426526927	4.032511404718332	0.6899999999999998	1	1.1	0.9				
	26	1	0.8770092328009201	2.26961497681802	0.0	0.0	4	1.0519500807160378	56.836982579633265	132.0	1	1.1	0.9				
	27	1	49.9697314549242	9.64136439354392	0.0	0.0	2	1.0270381226653544	-8.180456240340028	66.0	1	1.1	0.9				
	28	1	0.0	0.0	0.0	0.0	1	1.0879857865708882	-2.9634480000891528	220.0	1	1.1	0.9				
	29	1	330.69317943798796	104.07458328287463	0.0	0.0	2	1.0308378743498667	-32.27900727965185	66.0	1	1.1	0.9				
	30	2	0.041755911774933284	0.0395732937566936	0.0	0.0	1	0.99275293014502	1.479189510085539	16.0	1	1.1	0.9				
	31	1	0.0	0.0	0.0	-34.6324332985561	1	1.0425849666554408	-5.110747319067364	220.0	1	1.1	0.9				
	32	1	9.75895882505178	1.5392968715541069	0.0	0.0	1	1.0731588027274208	-8.654561045672258	11.0	1	1.1	0.9				
	33	1	2.5110759851943705	1.7956627605275202	0.0	0.0	4	0.9756478861167076	48.34411789867596	132.0	1	1.1	0.9				
	34	1	13.453758310799312	4.711496790331882	0.0	0.0	4	1.023052143156055	56.32660496251071	66.0	1	1.1	0.9				
	35	1	14.197918590656943	3.7203230835887613	0.0	0.0	4	0.995733011787451	53.353663277238084	66.0	1	1.1	0.9				
	36	1	0.0	0.0	0.0	0.0	4	0.9737113997408027	56.359114252830295	66.0	1	1.1	0.9				
	37	1	6.493231088791969	0.450657078794064	0.0	0.0	2	1.0133005547664948	-9.856720269103745	66.0	1	1.1	0.9				
	38	1	0.0	0.0	0.0	0.0	5	0.9716159287125512	-12.262239100319276	110.0	1	1.1	0.9				
	39	1	0.0	0.0	0.0	0.0	2	1.0806756945492382	-4.480836927782314	220.0	1	1.1	0.9				
	40	1	0.0	0.0	0.0	0.0	2	1.0865270324523177	-2.7116765515874097	11.0	1	1.1	0.9				
	41	1	430.36496573833654	53.94334374504909	0.0	0.0	1	1.0500737235519289	-20.67298077067943	132.0	1	1.1	0.9				
	42	1	0.0	0.0	0.0	0.0	2	1.0385461173462371	-10.94695357647927	66.0	1	1.1	0.9				
	43	1	15.20818631760552	17.736786945767513	0.0	14.308682867739398	3	1.011449648783798	-23.938209594886338	11.0	1	1.1	0.9				
	44	1	0.0	0.0	0.0	0.0	5	1.055535028273908	-11.628031015919936	220.0	1	1.1	0.9				
	45	2	0.788296720283572	0.0	0.0	0.0	3	0.9305520388204277	-26.79414989580522	11.0	1	1.1	0.9				
	46	2	0.09111050326647241	0.0927051996761467	0.0	0.0	1	0.9597810070261382	12.071802752626336	15.4	1	1.1	0.9				
	47	1	0.0	0.0	0.0	0.0	2	1.0628131502887084	-20.670139640123942	500.0	1	1.1	0.9				
	48	1	0.0	0.0	0.0	0.0	3	1.0805926920813815	-1.4625448281721465	275.0	1	1.1	0.9				
	49	1	0.0	0.0	0.0	0.0	1	1.0427877309712505	-16.706517516585148	132.0	1	1.1	0.9				
	50	1	0.0	0.0	0.0	0.0	1	1.0458847725856544	-15.318651644436125	330.0	1	1.1	0.9				
	51	1	19.212638828279452	4.42512560178912	0.0	0.0	1	1.0647610767581202	-12.931384042798378	132.0	1	1.1	0.9				
	52	2	18.341554469353003	10.3636909979163	0.0	0.0	1	0.9752161167236397	7.9316896574994304	22.0	1	1.1	0.9				
	53	1	0.0	0.0	0.0	0.0	4	1.0439237890336623	55.64793972302397	66.0	1	1.1	0.9				
	54	1	10.2681210531095	3.7292921931214105	0.0	0.0	4	1.0353489774734148	52.98839441908737	11.0	1	1.1	0.9				
	55	1	0.0	0.0	0.0	0.0	3	0.9944273720849907	-18.18089589496723	132.0	1	1.1	0.9				
	56	2	0.0	0.0	0.0	0.0	4	0.9726996149486971	56.359114129328646	11.5	1	1.1	0.9				
	57	1	6.488551926604201	4.97643151054973	0.0	0.0	1	1.1198126053507267	1.5330671388221762	33.0	1	1.2	0.8				
	58	1	0.0	0.0	0.0	0.0	1	1.0888071669421122	-12.35691620874209	0.55	1	1.1	0.9				
	59	1	40.0287122888974	22.0998052462132	0.0	0.0	1	1.0513631746354433	-19.8996226968804	132.0	1	1.1	0.9				
	60	2	26.1777880304224	19.7905713920539	0.0	0.0	3	0.9785178430309003	6.725306606336994	19.0	1	1.1	0.9				
	61	1	-0.23610117125269	0.0	0.0	-3.91829091666266	1	1.0293062558669726	-3.2814214550814516	0.6899999999999998	1	1.1	0.9				
	62	2	0.0	0.0	0.0	0.0	5	1.0433409686196238	-2.2286793572429464	11.0	1	1.1	0.9				
	63	1	0.0	0.0	0.0	0.0	1	1.0943207795242897	-7.547469978515342	132.0	1	1.1	0.9				
	64	1	39.134712248537596	16.9439584413141	0.0	0.0	1	1.0445307386160738	-19.223970724794075	132.0	1	1.1	0.9				
	65	1	18.173941410299157	6.30852069486659	0.0	0.0	4	0.9938397403878303	52.0506223567172	11.0	1	1.1	0.9				
	66	1	0.0	0.0	0.0	0.0	5	1.0610931970107178	-9.537412818534944	110.0	1	1.1	0.9				
	67	1	2.93367640063595	0.029366440789774097	0.0	0.0	1	1.035991866464995	-3.6150541576866555	22.0	1	1.1	0.9				
	68	1	0.0	0.0	0.0	0.0	2	0.9990258493550974	1.691024235672415	17.0	1	1.1	0.9				
	69	1	196.2046264271701	39.8853895251268	0.0	0.0	2	1.0649595403645902	-31.521554303673195	66.0	1	1.1	0.9				
	70	1	4.19199413618487	0.158280233575124	0.0	0.0	4	1.0192262664937854	56.199875563632986	66.0	1	1.1	0.9				
	71	1	1.541569736731471	0.635675921807158	0.0	0.0	4	0.9888942490355244	58.39023411852173	33.0	1	1.1	0.9				
	72	1	32.03763642093009	15.022891364196841	0.0	0.0	4	1.0058478231013848	53.86149679379438	11.0	1	1.1	0.9				
	73	1	0.0	0.0	0.0	0.0	3	1.0398024887700263	0.40858833033567954	110.0	1	1.1	0.9				
	74	1	11.186850288082379	5.37348015239737	0.0	0.0	5	1.0078056469827243	-6.791521815052017	6.6	1	1.1	0.9				
	75	1	5.512170804402	-0.297153097662144	0.0	0.0	5	1.0221913776607936	-10.853877529825509	22.0	1	1.1	0.9				
	76	2	4.31874350848887	0.07453176079317932	0.0	0.0	4	1.0515586652605757	65.52461462098597	15.75	1	1.1	0.9				
	77	1	0.0	0.0	0.0	0.0	5	1.1000000040181128	-2.2306265715972926	220.0	1	1.1	0.9				
	78	1	0.0	0.0	0.0	0.0	3	1.049377444248649	-1.2428659524182297	132.0	1	1.1	0.9				
	79	1	70.0829089402803	-5.051231327439799	0.0	0.0	1	1.0523855890130898	-22.30028276966261	33.0	1	1.1	0.9				
	80	1	0.0	0.0	0.0	0.0	3	1.0345568331003645	-20.216901857956262	110.0	1	1.1	0.9				
	81	1	0.0	0.0	0.0	0.0	3	1.045518538332595	-19.388918585559807	110.0	1	1.1	0.9				
	82	2	0.0	0.0	0.0	0.0	1	1.0153409036121672	4.1693119930605835	0.6899999999999998	1	1.1	0.9				
	83	1	57.7295707898397	14.189142892166739	0.0	8.030441348254676	1	1.040602000169125	-13.599412134784167	66.0	1	1.1	0.9				
	84	1	17.5632361167267	3.5442949379365896	0.0	0.0	1	1.0480284494041512	-5.322211704784876	66.0	1	1.1	0.9				
	85	1	30.311047289708597	8.8233872045598	0.0	0.0	3	1.059034403338995	-16.85276720823839	66.0	1	1.1	0.9				
	86	1	0.0	0.0	0.0	0.0	3	1.025905603812447	-6.9380203618013425	10.5	1	1.1	0.9				
	87	1	0.0	0.0	0.0	0.0	3	0.9944320172649589	-18.108118672137348	132.0	1	1.1	0.9				
	88	1	0.0	0.0	0.0	0.0	3	1.0634204998080345	-14.737362353433262	275.0	1	1.1	0.9				
	89	2	0.0	0.0	0.0	0.0	5	1.001014745914048	3.2143112209712417	11.0	1	1.1	0.9				
	90	1	0.0	0.0	0.0	0.0	3	1.0417577179947213	-22.629325738682134	110.0	1	1.1	0.9				
	91	1	0.0	0.0	0.0	0.0	1	1.0865732865055693	-13.463260667179345	11.0	1	1.1	0.9				
	92	1	50.2121305000638	26.702488916025104	0.0	0.0	1	1.0493159082182184	-19.969988630085826	132.0	1	1.1	0.9				
	93	1	0.0	0.0	0.0	0.0	3	1.0006709572074781	-30.956742676253445	132.0	1	1.1	0.9				
	94	2	32.7047949975725	24.864146277261202	0.0	0.0	1	1.0208230843818322	10.458724225990759	23.0	1	1.1	0.9				
	95	1	0.0	0.0	0.0	0.0	4	0.9307584558905165	26.44930838594401	275.0	1	1.1	0.9				
	96	1	16.65690244254144	1.29427581817019	0.0	0.0	4	1.0140752553994403	42.787957003270776	11.0	1	1.1	0.9				
	97	1	0.0	0.0	0.0	29.894232766237096	5	1.0557240861971138	-10.335294266265505	110.0	1	1.1	0.9				
	98	1	0.0	0.0	0.0	0.0	2	0.9949908600102572	2.0898285083965376	15.0	1	1.1	0.9				
	99	1	0.0	0.0	0.0	0.0	3	1.0260396190826122	-18.511252059356092	132.0	1	1.1	0.9				
	100	1	250.886682327865	75.2659098594328	0.0	44.461175359315206	2	1.0211216474265565	-29.296942371093525	66.0	1	1.1	0.9				
	101	1	5.07065556205446	2.821128374923114	0.0	0.0	4	0.9837325071748986	49.44995577411193	132.0	1	1.1	0.9				
	102	1	32.8164347707108	4.9383484389306895	0.0	0.0	5	1.0367219582281293	-12.198126408882418	22.0	1	1.1	0.9				
	103	1	0.0	0.0	0.0	0.0	5	1.0289527047520208	-5.422540370706643	110.0	1	1.1	0.9				
	104	2	0.0	0.0	0.0	0.0	5	1.0435425696105163	-2.2286793542993815	11.0	1	1.1	0.9				
	105	1	0.0	0.0	0.0	0.0	4	1.049199747093307	56.97750621635802	132.0	1	1.1	0.9				
	106	1	0.0	0.0	0.0	0.0	1	1.0614524017422307	-3.280318172571121	132.0	1	1.1	0.9				
	107	1	0.0	0.0	0.0	0.0	3	1.0624150637579919	-14.516311862320302	275.0	1	1.1	0.9				
	108	1	4.969286691016694	2.3123035960519642	0.0	0.0	5	1.040863150880727	-10.297772059786885	11.0	1	1.1	0.9				
	109	1	74.2226343486775	22.05492030875552	0.0	-99.2070401832461	1	1.036549858393296	-18.34792072108237	132.0	1	1.1	0.9				
	110	1	0.0	0.0	0.0	0.0	4	1.0219332239031884	54.80219348393329	132.0	1	1.1	0.9				
	111	1	0.0	0.0	0.0	0.0	1	1.0681931088675378	-12.823963115206137	132.0	1	1.1	0.9				
	112	1	0.0	0.0	0.0	0.0	5	1.0271869016938635	-6.703614218886324	110.0	1	1.1	0.9				
	113	2	33.7906400303283	25.010466589327603	0.0	0.0	1	1.0463560018111002	12.685392660448185	23.0	1	1.1	0.9				
	114	1	12.944638185298071	4.48511734599243	0.0	0.0	4	1.021005652723051	52.85915230119462	11.0	1	1.1	0.9				
	115	1	0.0	0.0	0.0	0.0	1	1.1000000101727059	1.5330671388221906	11.5	1	1.1	0.9				
	116	1	-1.88206920590084	11.076387805541788	0.0	0.0	1	1.0485810047246245	-5.271190755424194	66.0	1	1.1	0.9				
	117	1	23.836942642017902	8.62703598491233	0.0	0.0	3	1.010344283104773	-8.362613807690359	33.0	1	1.1	0.9				
	118	1	0.0	0.0	0.0	-5.310486417617648	4	0.9681902290184919	61.350570712834376	11.0	1	1.1	0.9				
	119	1	20.9627419086049	7.30465038572508	0.0	0.0	4	1.03004872449764	50.77030900179995	11.0	1	1.1	0.9				
	120	1	243.0495142466644	66.2045387597053	0.0	0.0	2	1.0191054224459484	-28.010118696988176	66.0	1	1.1	0.9				
	121	1	10.86834700245257	2.67710046144575	0.0	0.0	4	1.0250000330089428	53.126507750443935	11.0	1	1.1	0.9				
	122	1	0.08670604601501997	-0.0777118948905263	0.0	0.0	4	1.073833046449698	56.25441051723457	11.0	1	1.1	0.9				
	123	1	0.0	0.0	0.0	0.0	4	1.0508044061813138	56.29524836471924	66.0	1	1.1	0.9				
	124	1	0.0	0.0	0.0	0.0	1	1.0815686194522447	-14.363902818947937	33.0	1	1.1	0.9				
	125	1	0.0	0.0	0.0	0.0	3	1.068398275066763	-13.709516610644826	275.0	1	1.1	0.9				
	126	1	0.0	0.0	0.0	13.158405933156597	4	0.9906050681564106	73.26828384680705	33.0	1	1.1	0.9				
	127	1	0.0	0.0	0.0	-0.19976287200000037	4	1.0121578222105163	59.73126577856423	66.0	1	1.1	0.9				
	128	1	103.47999373875709	15.980379844340142	0.0	0.0	2	1.0270394971207684	-23.708865084061628	66.0	1	1.1	0.9				
	129	1	37.54978946485959	4.9914600100955	0.0	0.0	1	1.0225321199007331	-27.17232570550747	11.0	1	1.1	0.9				
	130	3	27.214341009702498	22.9900319056034	0.0	0.0	1	1.0705818421241466	-1.8147324645600393e-28	23.0	1	1.1	0.9				
	131	1	28.315677173559607	10.95326979663102	0.0	15.527084234760203	3	1.0431167975025817	-20.31570284995582	66.0	1	1.1	0.9				
	132	1	0.0	0.0	0.0	0.0	1	1.064462696818856	-22.985518410147296	11.0	1	1.1	0.9				
	133	1	0.0	0.0	0.0	0.0	5	1.044262367631709	-6.57251550167772	110.0	1	1.1	0.9				
	134	1	0.0	0.0	0.0	-5.1662712919060105	4	1.0552258878593572	61.60920955436234	33.0	1	1.1	0.9				
	135	1	0.260013003669307	-3.3239035728246007	0.0	-8.583069842379542	3	1.0406642897458762	-11.139104123078074	132.0	1	1.1	0.9				
	136	1	0.0	0.0	0.0	0.0	5	1.0236148955566364	-7.608984006811546	110.0	1	1.1	0.9				
	137	1	1.233107867487501	0.521934969551628	0.0	0.0	5	1.0143619005773585	-5.895296500642322	6.6	1	1.1	0.9				
	138	1	0.10484938732814	-0.0988192678010091	0.0	0.0	2	1.0185332688567523	-9.621233116214981	11.0	1	1.1	0.9				
	139	2	0.0	0.0	0.0	125.11007490009098	3	1.0722774687604777	-12.465096410794127	275.0	1	1.1	0.9				
	140	1	0.0	0.0	0.0	0.0	2	1.0284695137151891	-23.51896643892444	220.0	1	1.1	0.9				
	141	1	0.0	0.0	0.0	0.0	5	1.0634906592100215	-5.898480980533961	110.0	1	1.1	0.9				
	142	1	0.0	0.0	0.0	0.0	3	1.060833198101229	-12.04876270100967	132.0	1	1.1	0.9				
	143	1	0.0	0.0	0.0	51.53415665961797	3	1.0612453115322213	-16.042011495768563	110.0	1	1.1	0.9				
	144	1	14.062288434931599	-2.45112358235521	0.0	0.0	3	1.1000000084623829	-6.01562407784258	66.0	1	1.1	0.9				
	145	2	4.17243404168356	0.0695106546308845	0.0	0.0	4	1.0544858253657314	66.01182404528366	15.75	1	1.1	0.9				
	146	1	0.0	0.0	0.0	0.0	5	1.0516535725927663	-4.6134866580719915	220.0	1	1.1	0.9				
	147	1	25.8624559360833	7.64724010672546	0.0	0.0	3	1.0284787337026453	-22.071596119579784	33.0	1	1.1	0.9				
	148	1	5.15964921649806	1.9974763753036502	0.0	0.0	4	0.9696992786743013	26.76051528453724	33.0	1	1.1	0.9				
	149	1	0.0	0.0	0.0	0.0	1	1.0504664360178961	-12.397254004793483	132.0	1	1.1	0.9				
	150	1	0.0	0.0	0.0	0.0	3	1.0300165992398889	-20.105794330870296	13.8	1	1.1	0.9				
	151	1	0.0	0.0	0.0	0.0	4	0.9740642972260961	58.58740897850027	66.0	1	1.1	0.9				
	152	2	0.0	0.0	0.0	0.0	4	1.1000000073307445	25.048465270195532	1.0	1	1.1	0.9				
	153	1	12.3075833534053	6.865138002198192	0.0	5.125302518252278	3	1.008284873853183	-22.2218130192346	11.0	1	1.1	0.9				
	154	1	0.0	0.0	0.0	0.0	5	1.027823872392618	-7.308310766805295	110.0	1	1.1	0.9				
	155	1	6.791062040939461	2.2136897100674027	0.0	0.0	2	1.0450653206465002	-21.915087372651413	11.0	1	1.1	0.9				
	156	1	0.0	0.0	0.0	0.0	4	1.008711572206585	57.878535093786475	66.0	1	1.1	0.9				
	157	1	0.0	0.0	0.0	0.0	5	1.0353519529132829	-3.5250552510243076	110.0	1	1.1	0.9				
	158	1	0.0	0.0	0.0	0.0	3	1.091501308222287	-10.084679813384296	19.0	1	1.1	0.9				
	159	1	0.0	0.0	0.0	0.0	1	1.0519134038254356	-4.560224432282543	330.0	1	1.1	0.9				
	160	1	0.0	0.0	0.0	0.0	3	1.0685520585292911	1.1924488609202746	132.0	1	1.1	0.9				
	161	1	19.296613620424743	14.86667231412451	0.0	0.0	4	1.0025688293140305	59.51231128489141	66.0	1	1.1	0.9				
	162	1	2.3649401822946	-0.29877703061956	0.0	0.0	3	1.0440577232402923	-17.40815736897729	66.0	1	1.1	0.9				
	163	1	-12.616180889459711	0.0	0.0	-5.369636244967109	3	1.007170769838067	-15.664608182433078	11.0	1	1.1	0.9				
	164	1	96.0030458944804	20.01090188098545	0.0	0.0	1	1.0313459681781223	-18.614813258372028	66.0	1	1.1	0.9				
	165	1	0.0	0.0	0.0	-50.1496852527559	3	1.0848001547752268	-6.486087845913873	275.0	1	1.1	0.9				
	166	2	0.5021486751968038	0.0	0.0	0.0	3	0.9305555683693598	-26.770495828293612	11.0	1	1.1	0.9				
	167	1	10.836691047943201	3.12044231271967	0.0	0.0	2	1.011017430128594	-14.197639124799506	66.0	1	1.1	0.9				
	168	1	11.48143100589393	2.2075569995827458	0.0	0.0	3	1.0397419610250982	-19.766656862690848	110.0	1	1.1	0.9				
	169	1	0.0	0.0	0.0	0.0	1	1.070879306516803	-12.448887353746722	132.0	1	1.1	0.9				
	170	1	78.4661207230591	3.5030830638563297	0.0	118.62339701503501	1	1.0491512002520478	-18.712130886001155	132.0	1	1.1	0.9				
	171	1	7.61145394013934	3.3316030972668	0.0	0.0	4	1.022381209982492	53.465267573696906	11.0	1	1.1	0.9				
	172	1	0.0	0.0	0.0	0.0	3	1.080837605594399	-1.466980076231491	132.0	1	1.1	0.9				
	173	1	0.0	0.0	0.0	0.0	4	0.9989252067458285	60.610846219221585	9.5	1	1.1	0.9				
	174	1	0.0	0.0	0.0	0.0	3	1.026514591957125	-6.2410857447946	110.0	1	1.1	0.9				
	175	1	0.0	0.0	0.0	0.0	4	1.051048177980219	55.74326145725635	275.0	1	1.1	0.9				
	176	1	0.0	0.0	0.0	0.0	4	1.0169359113512018	56.94987146923159	132.0	1	1.1	0.9				
	177	2	0.0	0.0	0.0	-31.195545157883288	4	0.9886532544441814	3.1691808940079915	275.0	1	1.1	0.9				
	178	1	11.88898872021139	2.2430057880878502	0.0	0.0	5	1.0665571941256895	-11.385402278164632	22.0	1	1.1	0.9				
	179	1	0.0	0.0	0.0	15.134582585189499	1	1.0814098851076046	1.2882264415541291	33.0	1	1.1	0.9				
	180	1	0.0	0.0	0.0	0.0	1	1.0546995437000655	-4.236493258469911	33.0	1	1.1	0.9				
	181	1	3.5652287821649504	1.273702663153876	0.0	0.0	1	1.053121919264955	-5.154742965518949	132.0	1	1.1	0.9				
	182	1	5.71820972677711	-2.3636429420402703	0.0	19.612628245726192	1	1.0310615374212455	-20.330205661040342	66.0	1	1.1	0.9				
	183	1	16.1554269528498	6.293710968911551	0.0	0.0	3	0.9914776342790106	-0.49348708932074087	33.0	1	1.1	0.9				
	184	2	0.0	0.0	0.0	0.0	4	1.0583900781105433	56.29524827479842	11.5	1	1.1	0.9				
	185	1	0.0	0.0	0.0	0.0	3	1.0538088374929084	-18.154730476667645	110.0	1	1.1	0.9				
	186	1	0.0	0.0	0.0	0.0	3	1.081361734213575	0.10584204797586945	275.0	1	1.1	0.9				
	187	1	47.724204605875	10.319712196929611	0.0	0.0	1	1.0361546029517357	-19.12604847068894	132.0	1	1.1	0.9				
	188	1	0.0	0.0	0.0	0.0	3	1.0458174687720876	-13.137934905438952	132.0	1	1.1	0.9				
	189	1	53.2578253711913	15.640309677941403	0.0	0.0	1	1.0166763140233441	-25.248985594320587	11.0	1	1.1	0.9				
	190	1	19.54863211292792	5.10075168020744	0.0	0.0	1	1.053443350355622	-19.94843667481029	11.0	1	1.1	0.9				
	191	1	148.92321572476018	-3.763494021018969	0.0	0.0	1	1.068617256129386	-14.417202941173729	132.0	1	1.1	0.9				
	192	1	11.15172447323142	5.853280208103355	0.0	0.0	2	0.9834339172387181	-22.633286959401577	22.0	1	1.1	0.9				
	193	1	0.0	0.0	0.0	0.0	3	1.0532817841003856	-19.14245522396583	110.0	1	1.1	0.9				
	194	1	6.80520660248659	-18.930748061146218	0.0	0.0	3	1.057991394548808	-13.86428472458075	132.0	1	1.1	0.9				
	195	1	0.0	0.0	0.0	0.0	4	1.0427859589508046	55.47366492340747	66.0	1	1.1	0.9				
	196	1	2.1835738987048168	0.02881484689265501	0.0	0.0	1	1.0515673433718449	-5.145738080809624	132.0	1	1.1	0.9				
	197	1	0.0	0.0	0.0	0.0	1	1.0815484242312647	-14.363138377050678	33.0	1	1.1	0.9				
	198	1	0.0	0.0	0.0	0.0	3	1.0524001419774087	-18.881290928138416	66.0	1	1.1	0.9				
	199	1	0.0	0.0	0.0	8.938981215453241	3	1.0634501920138026	-9.300651969009454	132.0	1	1.1	0.9				
	200	1	1.63484782455815	-0.20946032363339298	0.0	0.0	4	1.0566167197895686	54.62210462063384	33.0	1	1.1	0.9				
...
];

%% generator data
%    bus    Pg    Qg    Qmax    Qmin    Vg    mBase    status    Pmax    Pmin    Pc1    Pc2    Qc1min    Qc1max    Qc2min    Qc2max    ramp_agc    ramp_10    ramp_30    ramp_q    apf
mpc.gen = [
	130	759.1849362377569	222.7315438578727	370.0	-240.0	1.01556	848.605419222452	1	850.0	0.0															
	1845	579.4312176400978	158.86136566205244	450.0	-190.0	1.02626	911.2691769853241	1	919.9999999999999	0.0															
	292	846.3717536066333	-53.88492326357163	390.0	-260.0	0.999	914.521020424575	1	919.9999999999999	0.0															
	332	913.1629824889368	-46.7106369577295	450.0	-190.0	1.00251	915.047054038756	1	919.9999999999999	0.0															
	1376	-9.493516978234296e-7	-2.0995983578409843	10.0	-10.0	1.01546	41.1012975615542	1	50.0	0.0															
	82	50.00000096424646	0.5317065150748971	10.0	-10.0	1.01729	45.4628463133704	1	50.0	0.0															
	1254	30.000000964402833	-1.6456644184680884	10.0	-10.0	1.0126	28.477100057434303	1	30.0	0.0															
	899	820.2627384211086	62.0308869575966	440.00000000000006	-280.0	1.01122	853.1517461942509	1	860.0	0.0															
	94	775.6789578591114	48.333594594426295	430.0	-280.0	1.01837	828.587737327442	1	830.0000000000001	0.0															
	1584	830.000000824392	167.56887209969676	430.0	-270.0	1.02332	824.9557847308	1	830.0000000000001	0.0															
	113	820.0000010014195	169.57859545700887	430.0	-280.0	1.01577	815.543500367366	1	819.9999999999999	0.0															
	30	110.00000106608773	-30.000000106364933	50.0	-30.0	1.02669	100.1029132	1	110.00000000000001	0.0															
	1635	100.00000096606662	-30.00000009982632	50.0	-30.0	1.01913	99.5320069049927	1	100.0	0.0															
	1916	100.0000009638057	-0.33932666979379084	30.0	-30.0	0.95282	90.5889255829901	1	100.0	0.0															
	52	330.1136069590481	-31.143663760338725	210.0	-110.00000000000001	0.97349	643.693602205161	1	650.0	0.0															
	1119	331.4137132649325	-28.132025554950435	220.00000000000003	-120.0	0.93205	645.28666725168	1	650.0	0.0															
	501	630.000006264597	51.16647828208223	210.0	-100.0	0.97558	628.9849849482072	1	630.0	0.0															
	822	250.68061806122532	-38.58233050387834	90.0	-90.0	0.97897	343.073364149896	1	350.0	0.0															
	1386	219.10394253922698	-37.94980413102804	90.0	-90.0	0.97805	338.426626157714	1	340.0	0.0															
	46	259.0470181851592	-38.42828200390431	90.0	-90.0	0.98407	341.42365312634496	1	350.0	0.0															
	1009	239.75511500195017	-37.193114470625474	90.0	-90.0	0.98186	336.309318444924	1	340.0	0.0															
	1032	236.17687435479365	-36.6197313259297	90.0	-90.0	0.98377	333.510404178291	1	340.0	0.0															
	1892	250.58964340780716	-37.677975663465205	90.0	-90.0	0.98556	340.135576679022	1	350.0	0.0															
	555	840.0000075184948	-108.07269730475025	420.0	-180.0	0.99894	832.440999925509	1	840.0	0.0															
	255	550.000004717099	-98.75262853009266	280.0	-130.0	0.98801	546.171568101272	1	550.0	0.0															
	210	50.000000962186455	7.228631519846385	20.0	-20.0	1.01502	46.1062790306169	1	50.0	0.0															
	933	50.000000962156946	18.857091477817978	20.0	-20.0	0.94492	46.5332684993628	1	50.0	0.0															
	1318	40.000000966076136	19.999999567646608	20.0	-30.0	0.91609	30.5123773106886	1	40.0	0.0															
	667	30.000000966740608	16.448396988732885	20.0	-20.0	1.04149	29.6002670221357	1	30.0	0.0															
	463	-8.515848799878692e-7	-11.08248833417338	100.0	-50.0	1.06298	210.894545504451	1	220.00000000000003	0.0															
	1034	-8.515848799926371e-7	-11.319599491224105	100.0	-50.0	1.0576	207.096134014428	1	210.0	0.0															
	1397	-8.515848799926369e-7	-11.053371168818275	100.0	-50.0	1.06354	209.43448703438	1	210.0	0.0															
	1753	-8.515848799878692e-7	-11.32798437275354	100.0	-50.0	1.06263	210.867295503616	1	220.00000000000003	0.0															
	1365	110.00000106483184	-23.00947269397747	30.0	-30.0	0.96354	108.81484992434301	1	110.00000000000001	0.0															
	1960	120.00000116479703	-18.63283402821672	30.0	-30.0	0.97025	110.332978322869	1	120.0	0.0															
	442	100.00000096478881	-14.256395731259957	40.0	-30.0	1.00307	96.48768505742771	1	100.0	0.0															
	909	100.00000096480142	-14.07036214195163	40.0	-40.0	1.01275	98.0252477621194	1	100.0	0.0															
	1649	100.00000096478567	-12.45091745120508	40.0	-40.0	1.02419	96.5074638390634	1	100.0	0.0															
	1272	3.5638637708802675e-6	15.086697738251843	409.99999999999994	-160.0	1.01885	835.11956340652	1	840.0	0.0															
	537	3.536744122124647e-6	14.739484574931556	409.99999999999994	-160.0	1.00955	829.493444249593	1	830.0000000000001	0.0															
	446	60.00000096707853	-2.4072426121756854	10.0	-20.0	1.04459	52.3175148501992	1	60.0	0.0															
	1218	-7.999999925901295e-7	-12.64141874128206	10.0	-20.0	1.04206	51.9722352538258	1	60.0	0.0															
	961	90.00000095208436	19.367325400966923	40.0	-30.0	0.97085	86.4684665810317	1	90.0	0.0															
	1167	100.00000095202728	24.699076591385108	40.0	-40.0	0.9712	90.0339754913002	1	100.0	0.0															
	1210	100.00000058916105	-0.8915795247053108	10.0	-10.0	1.06431	98.9588547302624	1	100.0	0.0															
	1990	-9.779911865983564e-7	-2.6797490532457497	10.0	-10.0	1.05968	179.468505843356	1	180.0	0.0															
	1268	-9.621017705979893e-7	9.99999925620224	10.0	0.0	0.97713	23.38719214	1	30.0	0.0															
	1347	190.00000185122937	29.37069184934972	80.0	-50.0	0.97456	189.47538619999997	1	190.0	0.0															
	1793	6.442013319797919e-8	-1.714650646554969	40.0	-30.0	1.00988	70.2652235693065	1	80.0	0.0															
	1083	6.4411720060246e-8	-29.999732560115127	40.0	-30.0	1.0122	71.0795632928889	1	80.0	0.0															
	1319	-9.47261519190635e-7	49.999998567446276	50.0	-50.0	0.95996	152.586644802825	1	160.0	0.0															
	637	110.00000106522343	49.99999849088299	50.0	-50.0	0.96635	108.100446894949	1	110.00000000000001	0.0															
	846	120.00000116517344	49.99999850187309	50.0	-50.0	0.97242	110.470307527771	1	120.0	0.0															
	1433	110.00000106520977	49.9999984643284	50.0	-50.0	0.96361	108.17915012921699	1	110.00000000000001	0.0															
	1115	110.00000107921689	17.04799855745879	40.0	-40.0	0.95738	107.325694307219	1	110.00000000000001	0.0															
	1913	110.00000107921457	17.127393198584898	50.0	-40.0	0.93803	107.571180567611	1	110.00000000000001	0.0															
	289	110.00000107920775	16.997809024836734	40.0	-40.0	0.94763	108.142809283454	1	110.00000000000001	0.0															
	1454	210.0000012257214	18.84007473516043	110.00000000000001	-40.0	0.98898	201.368655754533	1	210.0	0.0															
	827	210.00000122947	19.511240931049905	110.00000000000001	-40.0	0.99603	201.766158744693	1	210.0	0.0															
	1693	640.0000063792992	70.96079057704425	330.0	-210.0	1.00618	630.7525659587229	1	640.0	0.0															
	1668	-9.245051459779091e-7	-0.6448711003290266	310.0	-200.0	1.01171	692.4764770461251	1	700.0	0.0															
	1827	-9.245202508435552e-7	-4.652863121840525	340.0	-110.00000000000001	0.9903	743.727576350409	1	750.0	0.0															
	1853	-9.245289590170587e-7	-3.709195393628916	330.0	-110.00000000000001	0.99891	651.18307242021	1	660.0	0.0															
	1130	-9.245301553431763e-7	-6.461427018270963	330.0	-110.00000000000001	0.99686	647.149878913164	1	650.0	0.0															
	1107	120.00000117730876	10.000000633732666	10.0	-10.0	1.06524	115.622949829081	1	120.0	0.0															
	589	70.00000097734484	20.000000606679208	20.0	-30.0	1.07291	69.6506796327507	1	70.0	0.0															
	651	50.00000097710115	10.000000616948755	10.0	-10.0	1.07773	46.581592120633	1	50.0	0.0															
	633	120.0000011772336	20.000000641761876	20.0	-20.0	1.07461	114.864380666002	1	120.0	0.0															
	1395	-6.698170243052383e-7	10.000000632865701	10.0	-10.0	1.07694	73.23516054158162	1	80.0	0.0															
	1415	120.00000117648986	20.0000006559367	20.0	-30.0	1.08353	113.018319971292	1	120.0	0.0															
	1692	110.00000105156874	19.999962903312348	20.0	-20.0	0.97517	100.974593	1	110.00000000000001	0.0															
	486	110.00000105153187	19.999954528033747	20.0	-20.0	0.97542	100.3645848	1	110.00000000000001	0.0															
	1311	110.00000105261836	19.999795219167897	20.0	-20.0	0.97015	100.148673	1	110.00000000000001	0.0															
	1348	-9.28565923580248e-7	130.0000003664417	130.0	-70.0	0.99413	352.29798341787	1	360.0	0.0															
	569	-9.28566864030911e-7	130.00000036773966	130.0	-70.0	0.989	353.577216341277	1	360.0	0.0															
	1588	5.204107800760062	0.0635716065600057	30.0	-20.0	0.99081	51.6119330540299	1	60.0	0.0															
	1703	630.0000062800424	-59.58097638634434	260.0	-170.0	0.96625	626.956900197733	1	630.0	0.0															
	1410	110.00000105157017	19.999956498950706	20.0	-20.0	0.97029	100.8087346	1	110.00000000000001	0.0															
	1907	311.1182606253472	47.69761967336132	190.0	-120.0	0.99185	476.643849198753	1	480.0	0.0															
	329	420.0000041790948	6.7048945988308395	190.0	-120.0	0.97286	413.478915313189	1	420.0	0.0															
	1994	225.41048998983496	-37.47212976716439	200.0	-150.0	0.99223	481.327456929814	1	490.00000000000006	0.0															
	1889	226.85108480654534	-35.95825302704559	200.0	-150.0	0.98956	475.496667556395	1	480.0	0.0															
	1213	9.053658653667314	7.839355523619168	20.0	-20.0	1.02644	47.1338866906008	1	50.0	0.0															
	529	50.000000978996695	13.287151784574707	20.0	-20.0	1.02602	46.1283384356648	1	50.0	0.0															
	959	60.000000978963676	14.93837240092499	20.0	-20.0	1.02719	53.539829139953895	1	60.0	0.0															
	1921	70.00000097891392	16.946884747641235	20.0	-20.0	1.02592	66.5378691187571	1	70.0	0.0															
	973	60.00000096479723	11.058508401521458	30.0	-20.0	0.99783	56.4829927750938	1	60.0	0.0															
	1647	80.00000096464704	17.63158242860042	40.0	-20.0	1.0006	70.4010887629353	1	80.0	0.0															
	1996	-9.119497832006338e-7	-1.1453597893138423	50.0	-20.0	0.97188	55.8495727342218	1	60.0	0.0															
	273	250.00000246455096	19.999976862113012	20.0	-20.0	1.05379	240.12185123283402	1	250.0	0.0															
	1616	179.31772339966295	-40.91886388250841	390.0	-220.00000000000003	1.07483	989.914190588519	1	990.0	0.0															
	1255	50.00000096706535	-0.6550916630475607	20.0	-20.0	1.0021652453554195	47.830978430458394	1	50.0	0.0															
	1067	130.0002772362929	-17.07371562284781	150.0	-40.0	1.00238	327.941066311374	1	330.0	0.0															
	1315	134.67125466708447	-16.60679387442599	150.0	-50.0	1.01725	328.221132472344	1	330.0	0.0															
	1216	84.79755663852845	-54.774656851383085	150.0	-70.0	1.0801	333.52684475354897	1	340.0	0.0															
	1839	82.04994815211015	-52.139216491467536	150.0	-60.0	1.07699	335.174992911071	1	340.0	0.0															
	608	330.0000032647392	21.392065976289384	150.0	-90.0	1.01396	323.952838555873	1	330.0	0.0															
	782	330.00000326475606	12.53919365736007	150.0	-80.0	1.01738	321.767278076075	1	330.0	0.0															
	1858	430.00000426489686	64.4196010929329	180.0	-100.0	1.01525	422.530060780491	1	430.0	0.0															
	1701	430.00000426487526	64.13538804389903	190.0	-100.0	1.01123	422.44099449906497	1	430.0	0.0															
	305	420.00000416487336	63.20614271638315	190.0	-90.0	1.01182	416.57544194585597	1	420.0	0.0															
	628	419.99991268389533	64.749760785896	190.0	-100.0	1.01054	411.61222137440905	1	420.0	0.0															
	1177	1.50747882062366e-6	1.0798253149822672	190.0	-110.00000000000001	1.01726	428.869098612061	1	430.0	0.0															
	1417	420.0000041641623	50.3958674525737	190.0	-110.00000000000001	1.01886	413.432336428249	1	420.0	0.0															
	969	160.0000015646324	13.379129022549769	70.0	-50.0	1.01934	158.354711054701	1	160.0	0.0															
	1150	160.00000156461596	15.609285201431955	70.0	-50.0	1.01637	157.83937821052	1	160.0	0.0															
	1571	-9.488174171432074e-7	-6.34288727186488	70.0	-50.0	1.009	153.609530652668	1	160.0	0.0															
	1758	3.764650693876176e-5	-20.12076635562376	160.0	-90.0	1.06955	375.605614145869	1	380.0	0.0															
	1381	-9.154833759493894e-7	-4.273482150620342	90.0	-60.0	0.96738	209.356691142824	1	210.0	0.0															
	1983	-9.154793704863656e-7	-3.881029246817834	90.0	-60.0	0.96634	205.18749745981802	1	210.0	0.0															
	910	630.0000062641601	89.23050228456323	229.99999999999997	-120.0	0.98831	628.052562262723	1	630.0	0.0															
	1448	1.4879827640775536e-6	0.6479301539074411	220.00000000000003	-120.0	0.98849	638.170104924729	1	640.0	0.0															
	1580	647.7506029201182	127.29506936195132	260.0	-210.0	0.97748	671.132690536673	1	680.0	0.0															
	228	-8.738819969300833e-7	-0.7491517922472398	20.0	-20.0	1.01974	35.3824854665436	1	40.0	0.0															
	1353	-8.729820151989273e-7	-0.7891087391888235	20.0	-20.0	1.02374	35.1063570457092	1	40.0	0.0															
	45	-8.821856916465005e-7	1.2738575734369002	20.0	-10.0	0.94245	24.0841503046104	1	30.0	0.0															
	1704	-8.821439333905572e-7	1.2023926593880816	20.0	-10.0	0.9398	24.7130107383127	1	30.0	0.0															
	1087	-9.384042190406688e-7	1.3164621505081264	20.0	-10.0	0.94267	23.6974350718665	1	30.0	0.0															
	166	-8.821841233388489e-7	1.34439229907317	20.0	-10.0	0.93537	24.5818638734054	1	30.0	0.0															
	527	-8.822696580969962e-7	0.03692020561871401	10.0	-10.0	1.01518	8.7651425538864	1	10.0	0.0															
	1355	200.00000196666483	-9.52663147495664	90.0	-70.0	1.00347	195.96899449389898	1	200.0	0.0															
	1639	110.00000106436762	29.97102649007753	50.0	-40.0	0.92011	105.795435098372	1	110.00000000000001	0.0															
	1182	190.00000186412797	-23.04127472915793	80.0	-50.0	1.00491	189.74077837402	1	190.0	0.0															
	1479	40.00000096307589	3.8833101344188035	20.0	-20.0	0.99805	34.7002429670887	1	40.0	0.0															
	1298	230.00000226458167	27.238327434759807	90.0	-60.0	0.98699	223.21536341426	1	229.99999999999997	0.0															
	1663	240.00000236456617	28.91444021336835	100.0	-50.0	0.98381	230.990713269683	1	240.0	0.0															
	439	230.0000022645779	26.638472866411288	90.0	-60.0	0.99662	225.23718779557402	1	229.99999999999997	0.0															
	1064	420.00000416472386	30.192799337664677	190.0	-90.0	1.0065	416.378375744331	1	420.0	0.0															
	826	56.9220042870208	-18.642600800242043	190.0	-90.0	1.00423	426.8220308	1	430.0	0.0															
	1289	51.270763417843376	-16.84688173130743	150.0	-130.0	0.99478	423.626371387602	1	430.0	0.0															
	1140	59.14500836745516	-21.444112280840134	190.0	-90.0	1.00248	515.843401	1	520.0	0.0															
	60	425.45602006470205	-95.99457718719039	229.99999999999997	-180.0	1.00366	579.8661901449091	1	580.0	0.0															
	1219	393.0555683056157	-88.00174451277208	229.99999999999997	-190.0	1.0051	566.034920721082	1	570.0	0.0															
	1175	-9.791364103849413e-7	-6.7369610535639	10.0	-10.0	0.99352	36.2839481079485	1	40.0	0.0															
	1786	-9.790929601399425e-7	19.999999277378187	20.0	-30.0	0.99873	121.983711870527	1	130.0	0.0															
	723	-9.790929633526754e-7	9.999999294061114	10.0	-10.0	0.9941	21.6044311194727	1	30.0	0.0															
	184	-9.791539588555682e-7	4.50386661152838	30.0	-10.0	0.98064	36.2619373	1	40.0	0.0															
	603	-9.791539588555682e-7	4.569204164992472	30.0	-10.0	0.98165	37.22684	1	40.0	0.0															
	774	-9.791539588555682e-7	4.838444075487777	30.0	-10.0	0.97347	36.524171100000004	1	40.0	0.0															
	441	-9.791539588555682e-7	5.099293524257624	30.0	-10.0	0.98277	37.0209491	1	40.0	0.0															
	56	-9.791131303591113e-7	-0.49204144703049874	30.0	-10.0	0.97606	37.2833587994021	1	40.0	0.0															
	1228	-9.73351211338938e-7	-0.5673354640156151	30.0	-10.0	0.96603	37.528516240641	1	40.0	0.0															
	938	-9.791131303591113e-7	-0.6230724768083405	30.0	-10.0	0.9779	36.3901201120326	1	40.0	0.0															
	1450	-9.791131303591113e-7	-0.6469366062022726	30.0	-10.0	0.97693	36.1408798766029	1	40.0	0.0															
	1524	6.7912098001970345e-6	-19.999975213340583	10.0	-20.0	1.09411	89.9570863413974	1	90.0	0.0															
	145	199.99998317310084	89.9999792239791	90.0	-80.0	0.99553	198.828031233628	1	200.0	0.0															
	76	199.9999834524425	89.99997930007999	90.0	-80.0	0.99759	194.91053826953302	1	200.0	0.0															
	475	-9.791259614386027e-7	89.99997855423278	90.0	-80.0	0.99607	203.925937385531	1	210.0	0.0															
	922	-9.791274754254641e-7	3.243177226094491	70.0	0.0	1.00101	162.35489527462101	1	170.0	0.0															
	1927	159.9999850282834	35.96325620461786	70.0	0.0	0.99526	159.27815700299098	1	160.0	0.0															
	1402	-9.791274748520027e-7	2.8433013361574475	70.0	0.0	1.00174	159.933895852882	1	160.0	0.0															
	1013	269.9999861286651	64.96274924838897	110.00000000000001	-50.0	1.00541	266.94065888878	1	270.0	0.0															
	1882	279.9999862697621	75.15425422804861	110.00000000000001	-50.0	1.01184	272.704311920097	1	280.0	0.0															
	1033	269.9999861785442	67.0830736132848	110.00000000000001	-50.0	1.00877	262.876889418112	1	270.0	0.0															
	284	179.9999969081917	-39.999996826518476	70.0	-40.0	1.01738	175.50502469390602	1	180.0	0.0															
	1904	89.99999551541579	-19.99999655691542	40.0	-20.0	1.01721	88.5158615344204	1	90.0	0.0															
	312	-9.640031956110483e-7	30.00000090172112	30.0	-20.0	1.0036	50.093021374605605	1	60.0	0.0															
	1593	-9.69048039521497e-7	8.150829561720677	10.0	-10.0	1.0024	34.96740921	1	40.0	0.0															
	1874	71.412540408429	9.178734218211838	10.0	-10.0	1.00267	100.7653224	1	110.00000000000001	0.0															
	395	-9.68851251153455e-7	3.7785873626406703	20.0	-30.0	1.01253	77.61118044	1	80.0	0.0															
	1887	110.00000103509879	-2.7743415530660176	40.0	-40.0	0.96231	109.9329537	1	110.00000000000001	0.0															
	152	-9.690878810778836e-7	0.1525676799868645	10.0	-10.0	0.98213	50.331527630000004	1	60.0	0.0															
	1707	150.00000147720553	30.919270275534267	110.00000000000001	-90.0	0.98803	147.69696593489502	1	150.0	0.0															
	566	150.00000147717105	29.91822970927146	120.0	-110.00000000000001	0.98282	147.170128862932	1	150.0	0.0															
	1385	100.00000097721875	28.51154790478137	60.0	-40.0	0.9882	99.82682290775702	1	100.0	0.0															
	1021	60.000000977824655	5.9657517763320715	20.0	-20.0	1.05511	59.56099006	1	60.0	0.0															
	1987	-5.742392172289626e-7	3.852805437519817	90.0	-80.0	0.98159	123.24446895776799	1	130.0	0.0															
	798	40.00000086737971	7.377406156710337	20.0	-20.0	0.94727	37.868305058335	1	40.0	0.0															
	1085	6.778542675952009e-7	-12.19502949568618	50.0	-30.0	0.99307	72.60313276841859	1	80.0	0.0															
	1472	200.0000019787434	-6.429743240349915	120.0	-40.0	1.05574	192.64760894081599	1	200.0	0.0															
	1942	100.00000097873458	-3.9374618449093277	70.0	-20.0	1.05271	96.0025555250328	1	100.0	0.0															
	258	-8.381222394195531e-7	-0.7118935396783777	20.0	-10.0	1.05495	16.4278021572973	1	20.0	0.0															
	104	-8.381809951516741e-7	-3.9546990055298945	20.0	-20.0	1.04821	40.33056631	1	50.0	0.0															
	62	-8.381809951503597e-7	-3.844406191510958	20.0	-20.0	1.05035	40.0795192	1	50.0	0.0															
	468	40.00000097566343	4.26981520218264	20.0	-10.0	1.00571	33.6463986921869	1	40.0	0.0															
	1937	40.00000097567493	4.209109408336035	20.0	-10.0	1.0064	33.3273031253414	1	40.0	0.0															
	316	40.000000975665934	4.21148537901022	20.0	-10.0	1.00365	34.233340868547096	1	40.0	0.0															
	752	40.00000082959244	-9.796016125774841	30.0	-10.0	1.03199	37.7499579498544	1	40.0	0.0															
	842	60.00000097642098	-2.010335343572446	40.0	-20.0	0.96138	53.9771218854003	1	60.0	0.0															
	1127	-8.022317589635213e-7	-14.40557615389961	70.0	-50.0	0.95645	169.174009550363	1	170.0	0.0															
	429	180.00000177653092	19.32468299647501	80.0	-70.0	0.9564	175.344738017768	1	180.0	0.0															
	1123	-8.022317589679729e-7	-15.123618519266351	80.0	-60.0	0.9492	168.12110569328098	1	170.0	0.0															
	1552	40.00000097818709	-29.999997370251187	40.0	-30.0	1.02356	33.7659113864647	1	40.0	0.0															
	1244	-5.38380223377445e-7	-9.999996981895652	20.0	-10.0	1.01721	36.76534479	1	40.0	0.0															
	1419	70.0000009772817	-13.751895350899957	70.0	-50.0	0.98842	67.9893259308301	1	70.0	0.0															
	1256	70.00000097749755	13.271206701334364	70.0	-40.0	0.98837	68.36997707287081	1	70.0	0.0															
	1897	70.00000097751266	12.23630513387767	70.0	-40.0	0.98685	66.6358637739904	1	70.0	0.0															
	862	70.00000097749194	13.20891858015257	70.0	-40.0	0.98994	67.2894188493956	1	70.0	0.0															
	1880	90.00000097459944	3.110855483709844	10.0	-20.0	1.07274	83.72531062298448	1	90.0	0.0															
	559	70.00000097767732	9.535439434522726	30.0	-20.0	0.98622	65.7624427797273	1	70.0	0.0															
	570	-5.756614696278381e-7	1.4596994942692763	20.0	-10.0	0.98727	36.1447293923702	1	40.0	0.0															
	494	40.000000976914514	-0.8208902480224453	20.0	-20.0	0.98153	32.9465583476471	1	40.0	0.0															
	1850	40.00000097693037	-0.896203154127144	10.0	-20.0	1.01403	34.046855572122205	1	40.0	0.0															
	1086	-7.467691120250695e-7	-9.999962811676015	10.0	-10.0	1.00599	16.3866927560885	1	20.0	0.0															
	89	40.000000976930934	-1.5222426157357438	20.0	-10.0	0.99813	32.5552539895289	1	40.0	0.0															
	807	40.0000009769383	-1.4332332298282509	20.0	-10.0	1.00408	31.920388778904503	1	40.0	0.0															
	581	0.0	-149.99999907958298	320.0	-150.0	1.0605	1.08747929753736	1	0	0.0															
	25	80.00000096605855	0.0	0.0	0.0	1.07713	0.7938849320478039	1	80.0	0.0															
	1909	80.000000965133	0.0	0.0	0.0	1.07705	0.7164935316257183	1	80.0	0.0															
	1544	60.000000965524315	-20.00000067889095	10.0	-20.0	1.08759	0.500407203184462	1	60.0	0.0															
...
];

%% branch data
%    f_bus    t_bus    r    x    b    rateA    rateB    rateC    ratio    angle    status    angmin    angmax
mpc.branch = [
	1893	1583	0.0213946048670181	0.04942146980714439	0.012801024095775597	129.0	129.0	129.0	0	0	1	-59.99999999999999	59.99999999999999	37.78300513155335	4.652277487188177	-37.48856118160169	-5.312887581952302				
	1893	1077	0.020236665886361197	0.050316143305972186	0.10562471664845893	135.0	135.0	135.0	0	0	1	-59.99999999999999	59.99999999999999	32.529168587537896	-14.471772949324633	-32.31165761744982	3.85904220358399				
	917	462	0.026853445793652002	0.19165742354521298	5.195117468480018e-5	43.0	43.0	43.0	0	0	1	-59.99999999999999	59.99999999999999	20.5648680556712	-4.552088966441623	-20.4625313319762	5.276415224964288				
	1286	462	0.026984079889560107	0.185702086980017	5.17387384688482e-5	42.0	42.0	42.0	0	0	1	-59.99999999999999	59.99999999999999	20.355388152304997	-4.29026537751615	-20.2552125323649	4.973618370025173				
	1058	1113	0.011122782782912299	0.0297112037291843	0.006220453130174425	141.0	141.0	141.0	0	0	1	-59.99999999999999	59.99999999999999	-99.01047704331076	16.89360152186356	100.00000086562186	-14.960565880246232				
	1058	970	0.045772095961356514	0.120590632657148	0.025792474726494402	140.0	140.0	140.0	0	0	1	-59.99999999999999	59.99999999999999	14.369615307786452	-26.031199898578006	-14.043051705963961	23.902224990097295				
	1058	983	0.006779413947917152	0.018607729760026597	0.004025052771484478	143.0	143.0	143.0	0	0	1	-59.99999999999999	59.99999999999999	66.67775818219002	-6.134606542736278	-66.41020066944367	6.41334258260647				
	1632	1179	0.0011389550104285596	0.01393588748747199	1.6833172193448998	1342.0	1342.0	1342.0	0	0	1	-59.99999999999999	59.99999999999999	595.4162943472087	-209.11193579580095	-591.4718655680028	75.88666429535715				
	1632	1179	0.0011225049821915992	0.013771688338268497	1.6954215021408197	1344.0	1344.0	1344.0	0	0	1	-59.99999999999999	59.99999999999999	602.5525768869456	-211.05147723707597	-598.5717232177334	77.0983510645104				
	1332	1815	0.0006403316210620108	0.0064468902751826694	0.080071637497656	787.0	787.0	787.0	0	0	1	-59.99999999999999	59.99999999999999	405.71459490237265	105.33122358730391	-404.6610794332089	-103.24561629459184				
	1332	1815	0.000620334336382803	0.006148481834081931	0.08240736240510083	779.0	779.0	779.0	0	0	1	-59.99999999999999	59.99999999999999	425.51723334790836	109.84816762261984	-424.39549503428583	-107.49979607767075				
	1332	1709	0.0008590316504566002	0.008691190724875782	0.112796315229684	789.0	789.0	789.0	0	0	1	-59.99999999999999	59.99999999999999	437.48500608095577	-53.36894445853285	-435.93556587581634	56.92460701205435				
	1332	1572	0.0031186025418690404	0.03052345278941931	0.45626901837147793	773.0	773.0	773.0	0	0	1	-59.99999999999999	59.99999999999999	488.8589881149795	-64.32588920275732	-481.8703846497407	83.40519535218625				
	532	1427	0.0006390014028278651	0.0064548685555730016	0.09401233060830509	788.0	788.0	788.0	0	0	1	-59.99999999999999	59.99999999999999	-22.93969931105508	113.93132901232188	23.024698881982577	-123.40467405372098				
	532	1125	0.0014358749276801	0.014644579098475205	0.18420688904757598	793.0	793.0	793.0	0	0	1	-59.99999999999999	59.99999999999999	438.0350984807304	-39.482556816136984	-435.53409601359084	44.6097470184833				
	532	1855	0.0006980898858401917	0.006846981908912769	0.09338147855802613	774.0	774.0	774.0	0	0	1	-59.99999999999999	59.99999999999999	773.9972903425316	2.049406632689747	-770.2174798181483	24.733883357261863				
	581	952	0.00549684407743448	0.04001467715759991	0.5277011763906659	646.0	646.0	646.0	0	0	1	-59.99999999999999	59.99999999999999	136.63888372703624	-36.50134052856022	-135.7861173850469	-20.643014176349407				
	581	968	0.0036628589148653694	0.046574779405701004	0.7304052178330444	907.0	907.0	907.0	0	0	1	-59.99999999999999	59.99999999999999	-70.73811373795907	-29.722334929224946	70.89643093318459	-56.00836101165429				
	581	767	0.0024404891880895	0.029288513049949005	0.47137858199290905	875.0	875.0	875.0	0	0	1	-59.99999999999999	59.99999999999999	-70.81250383347427	-30.605118654523615	70.91416866407162	-25.09118804218885				
	581	1022	0.00411569981152844	0.0332833799581951	0.405787904264694	689.0	689.0	689.0	0	0	1	-59.99999999999999	59.99999999999999	-54.31120951066535	36.844752937248636	54.54028605253717	-83.16085258234584				
	581	1022	0.005464298468891071	0.035343942727401906	0.43209820210204875	601.0	601.0	601.0	0	0	1	-59.99999999999999	59.99999999999999	-49.16134336686285	32.96253573296985	49.42878448800298	-82.52444646296789				
	465	751	0.00032143239948153506	0.0034259883954422506	0.039614513562890204	814.0	814.0	814.0	0	0	1	-59.99999999999999	59.99999999999999	-138.52829881417645	123.64232689708538	138.6329466595642	-126.77151795049608				
	465	1910	0.0029789123197607697	0.0213626300034765	0.2681391625330549	640.0	640.0	640.0	0	0	1	-59.99999999999999	59.99999999999999	-278.383637340499	-28.394808879380847	280.53593737202493	14.648650540589077				
	465	1427	0.0011140258456952897	0.0129505473830168	0.14802050571879896	859.0	859.0	859.0	0	0	1	-59.99999999999999	59.99999999999999	416.91193615467546	-95.24751801770454	-415.03227174108144	101.0620589498384				
	668	374	0.0010885510705970199	0.0147748298170697	1.7006090545761405	1429.0	1429.0	1429.0	0	0	1	-59.99999999999999	59.99999999999999	-221.3061966778028	-115.369591275735	221.77660771623198	-73.25635480555654				
	668	374	0.0011106263382062301	0.014144395822631203	1.6346730551440307	1375.0	1375.0	1375.0	0	0	1	-59.99999999999999	59.99999999999999	-231.17494145328905	-111.30468428636111	231.6982459481603	-69.48061070474935				
	1299	1910	0.0003592095476724209	0.00485193630699255	0.09552678346910695	940.0	940.0	940.0	0	0	1	-59.99999999999999	59.99999999999999	86.59161694806049	40.700233415548645	-86.56040511304097	-50.8225736059274				
	1299	1910	0.00036659299122914716	0.004587482080457733	0.09496649899752864	898.0	898.0	898.0	0	0	1	-59.99999999999999	59.99999999999999	91.82464725514879	42.824531395253764	-91.78904755157329	-52.86112698300087				
	1299	1890	0.00239067232144671	0.017843493603628604	0.21502937305927303	656.0	656.0	656.0	0	0	1	-59.99999999999999	59.99999999999999	-237.3836075567267	32.553117832607164	238.64402404775754	-46.90415284743287				
	1299	243	0.00457242868733257	0.03418020142564271	0.4077533713723808	657.0	657.0	657.0	0	0	1	-59.99999999999999	59.99999999999999	511.2219837715382	-38.402154185482885	-500.40986464450566	74.27508712206716				
	436	374	0.0017476373474070298	0.0225862475770181	2.5475262015797195	1387.0	1387.0	1387.0	0	0	1	-59.99999999999999	59.99999999999999	584.0394373729274	-152.4188192620074	-578.8785850071778	-74.80182924395226				
	436	1559	0.0008477767884357367	0.011571809222622798	1.3597626684780695	1434.0	1434.0	1434.0	0	0	1	-59.99999999999999	59.99999999999999	701.221088350621	-136.89289617341865	-697.5874723752883	28.911061806617205				
	1513	712	0.00018765208803769203	0.0017710291671985806	0.02400285282507539	756.0	756.0	756.0	0	0	1	-59.99999999999999	59.99999999999999	257.50979844207745	84.96408480878198	-257.3845717035934	-86.4303353112778				
	1513	712	0.00018309565764572502	0.0017152461362816408	0.025621291051786402	753.0	753.0	753.0	0	0	1	-59.99999999999999	59.99999999999999	265.9318943114707	87.46600811189234	-265.80165318968596	-89.07257914309153				
	1513	1093	0.005062739744205489	0.047457793328152004	0.6801827127528468	753.0	753.0	753.0	0	0	1	-59.99999999999999	59.99999999999999	667.6184612926562	3.2877213193564465	-647.1254565419065	114.11769675175358				
	1513	243	0.005640994447898819	0.054073627863782496	0.7772919484522188	764.0	764.0	764.0	0	0	1	-59.99999999999999	59.99999999999999	629.795380772094	-3.953712195619313	-609.4739034079048	113.10397279199363				
	1766	30	0.0037399777384898416	0.11522154571351088	0.006938854755392411	275.0	275.0	275.0	1.0	0.0	1	-59.99999999999999	59.99999999999999	-109.4659571744079	44.4951987448218	109.9582451543128	-30.03957340012163				
	356	343	0.00244661896547396	0.019350938101233905	0.22834600732551413	679.0	679.0	679.0	0	0	1	-59.99999999999999	59.99999999999999	9.121583789283893	5.328525894182115	-9.112625445473169	-30.06919941521524				
	356	1766	0.0054815638063252	0.0399409118961464	0.47973428935437484	646.0	646.0	646.0	0	0	1	-59.99999999999999	59.99999999999999	209.408869621383	-12.913190657343016	-207.19522560895962	-22.612567365319396				
	343	1719	0.00410372099094093	0.029828231756910704	0.36499138505975703	1483.8375219635775	645.0	645.0	0	0	1	-59.99999999999999	59.99999999999999	-344.5985336038492	69.47538717058664	349.40026536561606	-73.83744168458342				
	343	793	0.0038084608243499	0.03183420282778101	0.37810937236825903	703.0	703.0	703.0	0	0	1	-59.99999999999999	59.99999999999999	-266.8117572951099	36.43633716258025	269.4292461212351	-55.336226195093715				
	343	760	0.00144971191580594	0.014868301946477504	0.19000741341426997	796.0	796.0	796.0	0	0	1	-59.99999999999999	59.99999999999999	99.73557574228803	7.742054442071533	-99.59806015395489	-26.831571401177655				
	343	758	0.0016278954856574497	0.0132292583637871	0.157336153255356	691.0	691.0	691.0	0	0	1	-59.99999999999999	59.99999999999999	90.26160612414121	-70.99502400189473	-90.080458976067	55.320413067731				
	952	1292	0.00709601896856702	0.054174033131706496	0.65326785024438	665.0	665.0	665.0	0	0	1	-59.99999999999999	59.99999999999999	5.766456473486047	31.78181085794833	-5.466676351366079	-105.14205896866213				
	751	1766	0.00166386096210172	0.0135379533045636	0.15520439058789107	691.0	691.0	691.0	0	0	1	-59.99999999999999	59.99999999999999	-413.4046787466967	70.03382262350777	416.1637462112621	-64.12092819592303				
	751	1910	0.00274414111995976	0.020981657009152704	0.2617178211031481	666.0	666.0	666.0	0	0	1	-59.99999999999999	59.99999999999999	-260.74456068065655	-53.0103071894562	262.53123582660197	38.289712747375454				
	751	1855	0.00187141090140715	0.021428806004412503	0.27130704536082195	851.0	851.0	851.0	0	0	1	-59.99999999999999	59.99999999999999	525.1988443152877	-100.9071839924217	-520.2329104355404	128.40236695632368				
	510	1979	0.005964429343834518	0.04615595429384241	0.559919314950723	670.0	670.0	670.0	0	0	1	-59.99999999999999	59.99999999999999	-98.53948300791723	34.68630285223592	99.2644145665074	-93.49709975578277				
	1364	269	0.000254828323430382	0.002517975235153461	1.2525606660218898	778.0	778.0	778.0	0	0	1	-59.99999999999999	59.99999999999999	-122.39978631341964	-81.28688256337365	122.43472176655057	-56.679573719343544				
	1364	269	0.000271172397340648	0.00264301669002743	1.24495918041561	771.0	771.0	771.0	0	0	1	-59.99999999999999	59.99999999999999	-116.60852613536025	-80.12893887930944	116.64225835959618	-57.01456166893899				
	1278	302	0.0342950132478122	0.09924133636807418	0.0261390999147855	148.0	148.0	148.0	0	0	1	-59.99999999999999	59.99999999999999	38.483906979922715	-8.299999676696313	-38.03740746335985	6.5417429652106				
	1278	699	0.035639496886978414	0.10653844324564596	0.02406568979042399	151.0	151.0	151.0	0	0	1	-59.99999999999999	59.99999999999999	43.678415738591895	-6.914449238422223	-43.089421050836016	5.873763872300248				
	968	767	0.0013382712363200298	0.017440944915344907	0.26543850867785507	919.9999999999999	919.9999999999999	919.9999999999999	0	0	1	-59.99999999999999	59.99999999999999	70.988516263949	-56.07713866777705	-70.91416866407167	25.09106704218861				
	968	1510	0.0036576786413243995	0.044478228680670306	0.6994230854636289	882.0	882.0	882.0	0	0	1	-59.99999999999999	59.99999999999999	-70.7280349220494	19.635028754279084	70.9963864401169	-98.4608977316383				
	968	1510	0.00364630651943386	0.044199198991008104	0.7333035897027699	881.0	881.0	881.0	0	0	1	-59.99999999999999	59.99999999999999	-71.15691227508417	18.011633145153738	71.42780618741624	-100.79349026780552				
	648	1855	0.0003668577104597351	0.00441661813680176	3.330163318504069	877.0	877.0	877.0	0	0	1	-59.99999999999999	59.99999999999999	-492.126661742373	-80.53205458324125	492.96799096352856	-275.5924941455053				
	269	243	0.00025530614959993407	0.0030419849197376512	0.0372119472607039	871.0000000000001	871.0000000000001	871.0000000000001	0	0	1	-59.99999999999999	59.99999999999999	-262.562641430655	125.57903398256896	262.7595876695368	-127.33196699147406				
	269	243	0.00026262887000595193	0.0029070965867340594	0.037134825276170895	833.0	833.0	833.0	0	0	1	-59.99999999999999	59.99999999999999	-273.73799015019046	133.17646384222056	273.9595761745003	-134.81473997947208				
	1363	1855	0.0005990839999169109	0.00585149085285217	0.08520547032542988	772.0	772.0	772.0	0	0	1	-59.99999999999999	59.99999999999999	344.4206048901205	-89.84624765014128	-343.7293836941124	87.27479234133635				
	1363	500	0.00360740342547465	0.033197096485666905	0.514430723322602	745.0	745.0	745.0	0	0	1	-59.99999999999999	59.99999999999999	-480.54705857731636	41.32420578949336	488.34151880832775	-26.048911229894635				
	749	1979	0.00399604540073648	0.030581321998375908	0.3795588746255081	666.0	666.0	666.0	0	0	1	-59.99999999999999	59.99999999999999	-159.86160416678084	-28.441429594746804	160.78609206140965	-6.871970734531953				
	749	1754	0.0016394406916201095	0.0128891051766779	0.15568176635422692	677.0	677.0	677.0	0	0	1	-59.99999999999999	59.99999999999999	58.18621428134541	24.27737805658045	-58.120050099969724	-40.91115134335066				
	712	1173	0.0006616731316100336	0.004931310835531909	0.07534584023475649	655.0	655.0	655.0	0	0	1	-59.99999999999999	59.99999999999999	318.00778827414183	-42.74589623129022	-317.39121654901925	39.04425045063063				
	712	1815	0.0030475391520839203	0.03176800784265111	0.40428603335089985	802.9999999999999	802.9999999999999	802.9999999999999	0	0	1	-59.99999999999999	59.99999999999999	654.0484272544383	51.0279308795545	-642.0616661247087	30.3391589616564				
	712	1022	0.005567214432419281	0.04080208764306131	0.5366600638017708	649.0	649.0	649.0	0	0	1	-59.99999999999999	59.99999999999999	138.9695116891078	-126.35057202276165	-137.5194895668615	76.05507705951776				
	712	1139	0.003376445538480949	0.03559826780126431	0.47936948058143286	809.0	809.0	809.0	0	0	1	-59.99999999999999	59.99999999999999	629.8084342346369	61.05280684689618	-617.4123824726668	18.23613632865584				
	50	1855	0.0004984658036660401	0.0052260588949895525	0.07084876054867645	806.0	806.0	806.0	0	0	1	-59.99999999999999	59.99999999999999	-180.6565212570007	-18.495155088453966	180.80621720498544	12.302555514699822				
	50	243	0.00048894178866595	0.004779740621322771	0.06421571918618488	773.0	773.0	773.0	0	0	1	-59.99999999999999	59.99999999999999	-175.5666823317559	-33.24734711959174	175.70841048282935	27.59358609363075				
	1719	793	0.0016177231878188407	0.013075334178902207	0.15598860032670206	688.0	688.0	688.0	0	0	1	-59.99999999999999	59.99999999999999	144.9954017600693	-45.91275129879434	-144.65574412035502	31.94661918524153				
	1719	1979	0.004230393194225061	0.031163470459792307	0.3978532764773349	651.0	651.0	651.0	0	0	1	-59.99999999999999	59.99999999999999	434.0743176749568	-143.00599112636561	-426.0280848782227	158.61238752750174				
	1719	758	0.00487603953066887	0.037748682541321	0.528233339417093	671.0	671.0	671.0	0	0	1	-59.99999999999999	59.99999999999999	310.02187593506943	-87.64119785081566	-305.4749876694731	65.65296839004021				
	1719	1146	0.0030880695344582204	0.022429178837193205	0.28348333942303405	645.0	645.0	645.0	0	0	1	-59.99999999999999	59.99999999999999	212.3803320773937	-71.12153633140737	-210.98628430072398	50.75166831357879				
	1910	758	0.004608929471296258	0.03800400496403689	0.46118647054224277	697.0	697.0	697.0	0	0	1	-59.99999999999999	59.99999999999999	-192.8662887526741	10.691042847399029	194.47758527981713	-48.087815284632676				
	1910	758	0.004585812630360851	0.03577098650301621	0.41855507495459193	674.0	674.0	674.0	0	0	1	-59.99999999999999	59.99999999999999	-204.46592112445376	16.653432588084577	206.27247072890492	-48.55972060668109				
	374	1559	0.0008832353375784117	0.011167770984761396	1.3441456838160801	1369.0	1369.0	1369.0	0	0	1	-59.99999999999999	59.99999999999999	-457.4916596893257	-76.99752014824372	459.0959241452561	-58.29404974866734				
...